10
 opt at b3lyp/6-31G
 C                 -1.11023742   -1.48910944    0.00000000
 H                 -2.10362455   -1.04710366    0.00000000
 H                 -1.06417186   -2.57298577    0.00000000
 C                  0.00000129   -0.72996859    0.00000000
 H                  0.97837633   -1.21056639    0.00000000
 C                  0.00000000    0.72996461   -0.00000000
 H                 -0.97837515    1.21056704   -0.00000000
 C                  1.11023670    1.48911039   -0.00000000
 H                  2.10363082    1.04712021   -0.00000000
 H                  1.06416107    2.57298674   -0.00000000
