10

C         -1.21745        0.94673        0.00000
C         -0.73659       -0.34644        0.00000
C          0.64032       -0.25456        0.00000
C          0.94509        1.09105        0.00000
N         -0.18925        1.81423        0.00000
H         -2.25993        1.23666        0.00000
H         -1.32401       -1.25480       -0.00000
H          1.34324       -1.07681       -0.00000
H          1.93981        1.51692        0.00000
H         -0.25876        2.85586       -0.00000
