9

C         -2.39850        1.13513        0.04192
C         -0.91244        1.44804        0.12708
O         -0.20778        0.28025        0.44221
H         -2.96277        2.05836       -0.20793
H         -2.76162        0.74365        1.01592
H         -2.58308        0.37559       -0.74726
H         -0.75315        2.21277        0.91955
H         -0.57328        1.84196       -0.85678
H          0.74898        0.54032        0.48482
