48

  C -1.20570395 -0.68424880 -0.00001390
  C -1.19542295  0.70202563  0.00002093
  C -0.01029645 -1.38629359 -0.00002568
  C  0.01026940  1.38625836 -0.00002067
  C  1.19539310 -0.70206072 -0.00001511
  C  1.20567512  0.68421437 -0.00000426
  H -2.14105452 -1.21505546 -0.00001331
  H -2.12279359  1.24665302  0.00003562
  H -0.01828419 -2.46173373 -0.00003279
  H  0.01823373  2.46169877 -0.00001209
  H  2.12276403 -1.24668792 -0.00001986
  H  2.14102031  1.21503011  0.00000118
  C  6.13261321 -0.70720728 -0.00007666
  C  6.14293043  0.61620016 -0.00013815
  C  7.39736270 -1.49279880 -0.00011742
  C  7.41977498  1.38197715 -0.00025084
  C  8.67420694 -0.72702204 -0.00022760
  C  8.68452477  0.59638539 -0.00028906
  H  5.22451597 -1.28111219 -0.00004771
  H  5.24389104  1.20419410 -0.00016311
  O  7.38805428 -2.68676603 -0.00015109
  O  7.42908346  2.57595361 -0.00039471
  H  9.57324579 -1.31501571 -0.00030591
  H  9.59262254  1.17029056 -0.00042135
  C -3.67876608 -4.95739519 -0.00016078
  C -2.53782022 -5.62803388 -0.00021104
  C -4.99148303 -5.65990461 -0.00022438
  C -2.51306017 -7.11670219 -0.00033341
  C -4.96672302 -7.14857254 -0.00034424
  C -3.82577748 -7.81921176 -0.00039447
  H -3.72173369 -3.88400745 -0.00012520
  H -1.57908284 -5.14343990 -0.00021951
  O -6.02083478 -5.05485967 -0.00026818
  O -1.48370046 -7.72175180 -0.00046715
  H -5.92545990 -7.63316619 -0.00043904
  H -3.78280991 -8.89260008 -0.00053339
  C -2.45384713  5.66460247 -0.00015651
  C -3.60511020  5.01183372 -0.00022705
  C -2.40587966  7.15270342 -0.00020943
  C -4.90671480  5.73472505 -0.00036251
  C -3.70748391  7.87559459 -0.00034239
  C -4.85874727  7.22282637 -0.00041290
  H -1.50278228  5.16511965 -0.00011117
  H -3.66480819  3.93924580 -0.00024356
  O -1.36721950  7.74162570 -0.00023494
  O -5.94538298  5.14579819 -0.00051455
  H -3.64778587  8.94818190 -0.00042914
  H -5.80981261  7.72230952 -0.00056158